Version 4
SHEET 1 1124 680
WIRE 240 16 176 16
WIRE 400 16 304 16
WIRE 176 144 176 16
WIRE 176 144 144 144
WIRE 192 144 176 144
WIRE 288 144 272 144
WIRE 304 144 288 144
WIRE 400 144 400 16
WIRE 400 144 384 144
WIRE 416 144 400 144
WIRE 560 144 496 144
WIRE 288 240 288 144
WIRE 64 384 64 144
WIRE 64 384 32 384
WIRE 288 384 288 304
WIRE 288 384 144 384
WIRE 432 384 288 384
WIRE 560 384 560 144
WIRE 560 384 512 384
WIRE 592 384 560 384
WIRE 288 480 288 384
WIRE 352 480 288 480
WIRE 560 496 560 384
WIRE 560 496 416 496
WIRE 352 512 288 512
WIRE 288 560 288 512
FLAG 32 384 Vin
IOPIN 32 384 In
FLAG 288 560 0
FLAG 592 384 Vout
IOPIN 592 384 Out
SYMBOL res 160 128 R90
WINDOW 0 0 56 VBottom 2
WINDOW 3 32 56 VTop 2
SYMATTR InstName R1
SYMATTR Value ""
SYMBOL res 512 128 R90
WINDOW 0 0 56 VBottom 2
WINDOW 3 32 56 VTop 2
SYMATTR InstName R1
SYMATTR Value ""
SYMBOL res 160 368 R90
WINDOW 0 0 56 VBottom 2
WINDOW 3 32 56 VTop 2
SYMATTR InstName R3
SYMATTR Value ""
SYMBOL res 528 368 R90
WINDOW 0 0 56 VBottom 2
WINDOW 3 32 56 VTop 2
SYMATTR InstName R3
SYMATTR Value ""
SYMBOL cap 304 0 R90
WINDOW 0 0 32 VBottom 2
WINDOW 3 32 32 VTop 2
SYMATTR InstName C1
SYMATTR Value ""
SYMBOL cap 272 240 R0
SYMATTR InstName C2
SYMATTR Value ""
SYMBOL res 288 128 R90
WINDOW 0 0 56 VBottom 2
WINDOW 3 32 56 VTop 2
SYMATTR InstName R21
SYMATTR Value ""
SYMBOL res 400 128 R90
WINDOW 0 0 56 VBottom 2
WINDOW 3 32 56 VTop 2
SYMATTR InstName R22
SYMATTR Value ""
SYMBOL Opamps\\opamp 384 432 R0
SYMATTR InstName U1
