Version 4
SHEET 1 1312 680
WIRE 160 64 128 64
WIRE 272 64 240 64
WIRE 480 96 432 96
WIRE 608 96 560 96
WIRE 0 192 -48 192
WIRE 128 192 128 64
WIRE 128 192 80 192
WIRE 160 192 128 192
WIRE 272 208 272 64
WIRE 272 208 224 208
WIRE 304 208 272 208
WIRE 432 208 432 96
WIRE 432 208 384 208
WIRE 480 208 432 208
WIRE 160 224 128 224
WIRE 608 224 608 96
WIRE 608 224 544 224
WIRE 640 224 608 224
WIRE 256 240 224 240
WIRE 480 240 432 240
WIRE -48 256 -48 192
WIRE 256 256 256 240
WIRE 576 256 544 256
WIRE 576 272 576 256
WIRE 128 336 128 224
WIRE 128 336 112 336
WIRE 432 336 432 240
WIRE 432 336 128 336
WIRE 32 384 32 336
FLAG -48 256 0
FLAG 32 384 0
FLAG 640 224 Vout
IOPIN 640 224 Out
FLAG 256 256 0
FLAG 576 272 0
FLAG 496 448 0
FLAG 496 368 VCC
FLAG 544 192 VCC
FLAG 224 176 VCC
SYMBOL res 96 176 R90
WINDOW 0 0 56 VBottom 2
WINDOW 3 32 56 VTop 2
SYMATTR InstName R1
SYMATTR Value 1522
SYMBOL res 256 48 R90
WINDOW 0 0 56 VBottom 2
WINDOW 3 32 56 VTop 2
SYMATTR InstName R2
SYMATTR Value 12
SYMBOL res 400 192 R90
WINDOW 0 0 56 VBottom 2
WINDOW 3 32 56 VTop 2
SYMATTR InstName R3
SYMATTR Value 12
SYMBOL res 576 80 R90
WINDOW 0 0 56 VBottom 2
WINDOW 3 32 56 VTop 2
SYMATTR InstName R4
SYMATTR Value 1522
SYMBOL voltage 128 336 R90
WINDOW 0 -32 56 VBottom 2
WINDOW 3 32 56 VTop 2
SYMATTR InstName Vcm
SYMBOL voltage 496 352 R0
WINDOW 123 0 0 Left 0
WINDOW 39 0 0 Left 0
SYMATTR InstName V1
SYMATTR Value 15
SYMBOL AutoGenerated\\LM833 192 208 R0
SYMATTR InstName U1
SYMBOL AutoGenerated\\LM833 512 224 R0
SYMATTR InstName U2
TEXT -68 408 Left 2 !.dc Vcm -5 5 1m
