Version 4
SHEET 1 1312 680
WIRE 160 64 128 64
WIRE 272 64 240 64
WIRE 480 96 432 96
WIRE 608 96 560 96
WIRE 0 192 -48 192
WIRE 128 192 128 64
WIRE 128 192 80 192
WIRE 160 192 128 192
WIRE 272 208 272 64
WIRE 272 208 224 208
WIRE 304 208 272 208
WIRE 432 208 432 96
WIRE 432 208 384 208
WIRE 480 208 432 208
WIRE 160 224 128 224
WIRE 608 224 608 96
WIRE 608 224 544 224
WIRE 640 224 608 224
WIRE 480 240 432 240
WIRE -48 256 -48 192
WIRE 128 368 128 224
WIRE 208 368 128 368
WIRE 304 368 304 288
WIRE 304 368 288 368
WIRE 320 368 304 368
WIRE 432 368 432 240
WIRE 432 368 400 368
FLAG -48 256 0
FLAG 640 224 Vout
IOPIN 640 224 Out
FLAG 496 448 0
FLAG 496 368 VCC
FLAG 544 192 VCC
FLAG 224 176 VCC
FLAG 304 288 0
FLAG 608 448 0
FLAG 608 368 -VCC
FLAG 224 240 -VCC
FLAG 544 256 -VCC
SYMBOL res 96 176 R90
WINDOW 0 0 56 VBottom 2
WINDOW 3 32 56 VTop 2
SYMATTR InstName R1
SYMATTR Value {mc(RR,tol)}
SYMATTR SpiceLine tol=5 pwr=.125
SYMBOL res 256 48 R90
WINDOW 0 0 56 VBottom 2
WINDOW 3 32 56 VTop 2
SYMATTR InstName R2
SYMATTR Value {mc(r,tol)}
SYMATTR SpiceLine tol=5 pwr=.125
SYMBOL res 400 192 R90
WINDOW 0 0 56 VBottom 2
WINDOW 3 32 56 VTop 2
SYMATTR InstName R3
SYMATTR Value {mc(r,tol)}
SYMATTR SpiceLine tol=5 pwr=1.25
SYMBOL res 576 80 R90
WINDOW 0 0 56 VBottom 2
WINDOW 3 32 56 VTop 2
SYMATTR InstName R4
SYMATTR Value {mc(RR,tol)}
SYMATTR SpiceLine tol=5 pwr=.125
SYMBOL voltage 496 352 R0
WINDOW 123 0 0 Left 0
WINDOW 39 0 0 Left 0
SYMATTR InstName V1
SYMATTR Value 10
SYMBOL AutoGenerated\\LM833 192 208 R0
SYMATTR InstName U1
SYMBOL AutoGenerated\\LM833 512 224 R0
SYMATTR InstName U2
SYMBOL voltage 304 368 R270
WINDOW 0 32 56 VTop 2
WINDOW 3 -32 56 VBottom 2
WINDOW 123 0 0 Left 0
WINDOW 39 0 0 Left 0
SYMATTR InstName Vdm1
SYMATTR Value -12.5m
SYMBOL voltage 192 368 R270
WINDOW 0 32 56 VTop 2
WINDOW 3 -32 56 VBottom 2
WINDOW 123 0 0 Left 0
WINDOW 39 0 0 Left 0
SYMATTR InstName Vdm2
SYMATTR Value 0
SYMBOL voltage 608 352 R0
WINDOW 123 0 0 Left 0
WINDOW 39 0 0 Left 0
SYMATTR InstName V2
SYMATTR Value -10
TEXT -68 472 Left 2 !.dc Vdm2 -12.5m 12.5m 2.5m
TEXT -72 408 Left 2 !.step param run 1 100 1
TEXT -72 432 Left 2 !.param RR=1522 r=12 tol=.01
