Version 4
SHEET 1 880 680
WIRE 432 64 368 64
WIRE -272 208 -336 208
WIRE -96 208 -112 208
WIRE 48 208 -32 208
WIRE 512 208 304 208
WIRE -336 288 -336 208
WIRE 144 288 96 288
WIRE 288 288 224 288
WIRE 288 320 288 288
WIRE 304 320 304 208
WIRE 304 320 288 320
WIRE 320 320 304 320
WIRE 48 336 48 208
WIRE 96 336 96 288
WIRE 96 336 48 336
WIRE 320 352 288 352
WIRE 384 352 384 336
WIRE 448 352 384 352
WIRE 512 352 512 208
WIRE 512 352 448 352
WIRE 96 384 96 336
WIRE 144 384 96 384
WIRE 288 384 288 352
WIRE 288 384 208 384
WIRE -336 464 -336 368
FLAG -336 464 0
FLAG 352 304 VCC+
FLAG 352 368 VCC-
FLAG 368 64 0
FLAG 432 -16 VCC+
FLAG 432 144 VCC-
FLAG 288 464 0
FLAG 448 352 vOpAmp
SYMBOL cap -32 192 R90
WINDOW 0 0 32 VBottom 2
WINDOW 3 32 32 VTop 2
SYMATTR InstName C1
SYMATTR Value 47nF
SYMBOL res -96 192 R90
WINDOW 0 0 56 VBottom 2
WINDOW 3 32 56 VTop 2
SYMATTR InstName R1
SYMATTR Value 500
SYMBOL voltage -336 272 R0
WINDOW 123 24 124 Left 2
WINDOW 39 0 0 Left 2
SYMATTR Value2 AC 1
SYMATTR InstName V1
SYMATTR Value ""
SYMBOL res 240 272 R90
WINDOW 0 0 56 VBottom 2
WINDOW 3 32 56 VTop 2
SYMATTR InstName R2
SYMATTR Value 13
SYMBOL cap 208 368 R90
WINDOW 0 0 32 VBottom 2
WINDOW 3 32 32 VTop 2
SYMATTR InstName C2
SYMATTR Value 6.8nF
SYMBOL Opamps\\opamp2 352 272 R0
SYMATTR InstName U1
SYMATTR Value TL082
SYMBOL voltage 432 -32 R0
WINDOW 0 46 40 Left 2
WINDOW 3 47 61 Left 2
WINDOW 123 0 0 Left 2
WINDOW 39 0 0 Left 2
SYMATTR InstName V2
SYMATTR Value 15V
SYMBOL voltage 432 48 R0
WINDOW 0 41 49 Left 2
WINDOW 3 49 77 Left 2
SYMATTR InstName V3
SYMATTR Value 15V
SYMBOL res 272 368 R0
SYMATTR InstName R3
SYMATTR Value 30k
SYMBOL res -176 192 R90
WINDOW 0 0 56 VBottom 2
WINDOW 3 32 56 VTop 2
SYMATTR InstName R4
SYMATTR Value 50
TEXT -368 488 Left 2 !.ac dec 1000 1000 1Meg
TEXT 176 152 Left 2 !.lib TL082.lib
